testData/tamu2000/pfcases_100_zone2326/Equ_tx2000_hr_4874_mod_v23_zone23_26_pslf.raw
0  100.000 
THIS IS A SYNTHETIC POWER SYSTEM MODEL THAT DOES NOT REPRESE
DATA RESEARCH PROJECT AND CONTAINS NO CEII.
1004,  2,  38.802,  -20.256,  0.000,  0.000,  1,  1.02740,  -37.9394,  'O DONNEL',  230.00,  9
1009,  2,  2.323,  -1.563,  0.000,  0.000,  1,  1.01132,  -36.4101,  'IRAAN 2 ',  13.800,  9
1012,  1,  -0.405,  -11.519,  0.000,  0.000,  1,  1.02629,  -50.1860,  'SANDERSO',  115.00,  9
1021,  2,  23.815,  -13.314,  0.000,  0.000,  1,  1.00835,  -35.0478,  'BIG SPRI',  13.800,  9
1023,  2,  23.015,  -4.215,  0.000,  0.000,  1,  1.01000,  -31.6634,  'O DONNEL',  13.800,  9
1026,  2,  27.053,  -9.555,  0.000,  0.000,  1,  1.00517,  -33.6046,  'BIG SPRI',  13.800,  9
1033,  2,  9.323,  -9.074,  0.000,  0.000,  1,  1.00499,  -41.7217,  'MCCAMEY ',  230.00,  9
1035,  2,  36.333,  -12.649,  0.000,  0.000,  1,  1.00510,  -33.9065,  'BIG SPRI',  13.800,  9
1039,  2,  21.367,  -8.686,  0.000,  0.000,  1,  1.00158,  -34.5936,  'FORT STO',  22.000,  9
1042,  2,  38.731,  -6.900,  0.000,  0.000,  1,  1.00000,  -30.8065,  'FORSAN 1',  13.800,  9
1046,  1,  8.237,  -2.492,  0.000,  0.000,  1,  1.02979,  -46.1004,  'OZONA 0 ',  115.00,  9
1048,  2,  71.241,  -10.960,  0.000,  0.000,  1,  1.00000,  -36.5075,  'MONAHANS',  18.000,  9
1049,  2,  55.058,  -4.888,  0.000,  0.000,  1,  1.00000,  -33.6372,  'MONAHANS',  18.000,  9
1053,  2,  46.668,  -11.346,  0.000,  0.000,  1,  1.00737,  -40.4695,  'MONAHANS',  230.00,  9
1057,  2,  59.738,  -15.172,  0.000,  0.000,  1,  1.00582,  -35.9766,  'LENORAH ',  18.000,  9
1066,  2,  40.244,  -7.914,  0.000,  0.000,  1,  1.00000,  -31.1290,  'BIG SPRI',  13.800,  9
1070,  2,  4.236,  -1.546,  0.000,  0.000,  1,  1.04000,  -36.0680,  'IRAAN 1 ',  13.800,  9
1072,  3,  29.597,  -5.208,  0.000,  0.000,  1,  1.01000,  -47.5875,  'ODESSA 1',  18.000,  9
1073,  2,  25.418,  -3.320,  0.000,  0.000,  1,  1.01000,  -41.9792,  'ODESSA 1',  18.000,  9
1074,  2,  26.534,  -2.109,  0.000,  0.000,  1,  1.01000,  -42.2020,  'ODESSA 1',  18.000,  9
1075,  2,  32.050,  -2.617,  0.000,  0.000,  1,  1.01000,  -43.0071,  'ODESSA 1',  18.000,  9
1076,  2,  71.598,  -8.380,  0.000,  0.000,  1,  1.01000,  -44.6294,  'ODESSA 1',  18.000,  9
1077,  2,  27.256,  -2.405,  0.000,  0.000,  1,  1.01000,  -42.3280,  'ODESSA 1',  18.000,  9
1081,  2,  55.715,  -22.487,  0.000,  0.000,  1,  1.01000,  -41.4989,  'ODESSA 1',  230.00,  9
1082,  2,  32.884,  -22.805,  0.000,  0.000,  1,  1.01987,  -36.7103,  'FORT STO',  115.00,  9
1084,  2,  76.435,  -31.823,  0.000,  0.000,  1,  1.03716,  -40.4531,  'BIG SPRI',  115.00,  9
1088,  2,  40.667,  -7.123,  0.000,  0.000,  1,  1.00000,  -38.2805,  'MCCAMEY ',  115.00,  9
2004,  2,  83.295,  -23.121,  0.000,  0.000,  2,  1.02196,  -54.2018,  'SAVOY 2 ',  13.800,  11
2005,  2,  72.850,  -20.338,  0.000,  0.000,  2,  1.02097,  -54.0391,  'SAVOY 3 ',  13.800,  11
2006,  2,  50.318,  -13.118,  0.000,  0.000,  2,  1.02000,  -53.4200,  'SAVOY 4 ',  13.800,  11
2013,  2,  4.817,  -10.255,  0.000,  0.000,  2,  1.03744,  -44.4542,  'PANHANDL',  18.000,  10
2024,  2,  58.200,  -18.626,  0.000,  0.000,  2,  1.02655,  -54.4160,  'PARIS 2 ',  13.800,  11
2057,  3,  106.036,  -80.097,  0.000,  0.000,  2,  0.99000,  -49.0673,  'WICHITA ',  18.000,  11
2062,  2,  41.567,  -21.126,  0.000,  0.000,  2,  1.02000,  -48.1759,  'VERNON 1',  18.000,  10
2071,  2,  13.497,  -7.024,  0.000,  0.000,  2,  1.00500,  -48.2574,  'ARCHER 2',  18.000,  11
2078,  2,  56.003,  -15.155,  0.000,  0.000,  2,  1.02000,  -56.2525,  'MUENSTER',  13.800,  11
2095,  2,  2.410,  1.984,  0.000,  0.000,  2,  1.02766,  -43.2617,  'PANHANDL',  13.800,  10
2100,  2,  5.098,  5.556,  0.000,  0.000,  2,  1.02119,  -41.4088,  'RALLS 1 ',  18.000,  10
2103,  2,  108.303,  -23.240,  0.000,  0.000,  2,  1.02553,  -55.0503,  'SHERMAN ',  20.000,  11
2104,  2,  82.836,  -17.606,  0.000,  0.000,  2,  1.02439,  -54.8798,  'SHERMAN ',  20.000,  11
2105,  2,  53.315,  -12.436,  0.000,  0.000,  2,  1.02176,  -54.4576,  'SHERMAN ',  20.000,  11
2115,  2,  40.129,  -13.808,  0.000,  0.000,  2,  1.02361,  -53.8426,  'PARIS 1 ',  13.800,  11
2116,  2,  70.644,  -22.845,  0.000,  0.000,  2,  1.02719,  -54.4038,  'PARIS 1 ',  13.800,  11
2117,  2,  36.226,  -12.142,  0.000,  0.000,  2,  1.02213,  -53.6618,  'PARIS 1 ',  13.800,  11
2118,  2,  34.912,  -11.411,  0.000,  0.000,  2,  1.02121,  -53.5140,  'PARIS 1 ',  13.800,  11
2119,  2,  56.358,  -18.859,  0.000,  0.000,  2,  1.02633,  -54.2720,  'PARIS 1 ',  13.800,  11
2120,  2,  35.153,  -11.746,  0.000,  0.000,  2,  1.02166,  -53.5719,  'PARIS 1 ',  13.800,  11
2123,  2,  10.124,  5.780,  0.000,  0.000,  2,  1.02826,  -44.1828,  'PANHANDL',  161.00,  10
2127,  2,  114.922,  -162.348,  0.000,  0.000,  2,  1.04723,  -46.3955,  'MIAMI 0 ',  500.00,  10
3001,  1,  0.000,  0.000,  0.000,  0.000,  3,  1.02205,  -67.9187,  'KERRVILL',  230.00,  28
3002,  1,  0.000,  0.000,  0.000,  0.000,  3,  1.01583,  -70.1039,  'KERRVILL',  115.00,  28
3005,  1,  0.000,  0.000,  0.000,  0.000,  3,  1.00423,  -77.3460,  'LEAKEY 0',  115.00,  28
3008,  1,  0.988,  4.419,  0.000,  0.000,  3,  1.01952,  -51.1083,  'COLEMAN ',  115.00,  27
3009,  1,  0.000,  0.000,  0.000,  0.000,  3,  1.02914,  -49.7512,  'SONORA 0',  115.00,  28
3010,  1,  0.000,  0.000,  0.000,  0.000,  3,  1.01245,  -75.6651,  'CAMP WOO',  115.00,  28
3011,  1,  0.000,  0.000,  0.000,  0.000,  3,  1.01457,  -72.6582,  'LLANO 0 ',  115.00,  28
3012,  1,  0.000,  0.000,  0.000,  0.000,  3,  1.00722,  -73.4530,  'WILLOW C',  115.00,  28
3014,  1,  0.000,  0.000,  0.000,  0.000,  3,  1.02751,  -66.1681,  'KINGSLAN',  115.00,  28
3017,  2,  15.483,  1.656,  0.000,  0.000,  3,  1.01000,  -37.4998,  'BLACKWEL',  18.000,  27
3018,  1,  -19.652,  -5.767,  0.000,  0.000,  3,  1.03084,  -48.4290,  'CHRISTOV',  230.00,  27
3019,  1,  112.362,  -5.789,  0.000,  0.000,  3,  1.02992,  -49.4273,  'CHRISTOV',  115.00,  27
3020,  2,  0.000,  0.000,  0.000,  0.000,  3,  1.03000,  -46.1417,  'CHRISTOV',  13.800,  27
3024,  1,  0.000,  0.000,  0.000,  0.000,  3,  1.02888,  -49.7363,  'ELDORADO',  115.00,  28
3025,  1,  0.000,  0.000,  0.000,  0.000,  3,  1.01767,  -58.6351,  'SAN SABA',  115.00,  28
3028,  2,  34.556,  -0.082,  0.000,  0.000,  3,  1.04000,  -47.0884,  'ABILENE ',  18.000,  27
3029,  1,  0.000,  0.000,  0.000,  0.000,  3,  1.03375,  -61.5025,  'LOMETA 0',  115.00,  28
3034,  2,  25.267,  -2.384,  0.000,  0.000,  3,  1.03000,  -31.4065,  'SNYDER 1',  22.000,  27
3035,  1,  0.000,  0.000,  0.000,  0.000,  3,  1.02129,  -57.5612,  'CHEROKEE',  115.00,  28
3036,  1,  0.000,  0.000,  0.000,  0.000,  3,  1.01981,  -55.1088,  'RICHLAND',  115.00,  28
3039,  2,  28.463,  -5.909,  0.000,  0.000,  3,  1.04000,  -40.0103,  'ROSCOE 2',  13.800,  27
3045,  2,  7.204,  -1.099,  0.000,  0.000,  3,  1.04000,  -39.0104,  'SILVER 4',  13.800,  27
3048,  2,  107.710,  -392.607,  0.000,  0.000,  3,  1.04687,  -49.9722,  'ROSCOE 5',  500.00,  27
3050,  1,  0.001,  -68.344,  0.000,  0.000,  3,  1.02536,  -56.1249,  'DEL RIO ',  230.00,  28
3051,  1,  0.001,  -20.453,  0.000,  0.000,  3,  1.01121,  -58.3069,  'DEL RIO ',  115.00,  28
3052,  1,  0.000,  0.000,  0.000,  0.000,  3,  1.01432,  -74.3272,  'HUNT 0  ',  115.00,  28
3055,  2,  29.062,  -0.783,  0.000,  0.000,  3,  1.04000,  -41.5222,  'WINGATE ',  13.800,  27
3056,  2,  27.214,  0.838,  0.000,  0.000,  3,  1.04000,  -40.1009,  'WINGATE ',  13.800,  27
3057,  2,  27.723,  0.560,  0.000,  0.000,  3,  1.04000,  -40.1897,  'WINGATE ',  13.800,  27
3060,  2,  8.655,  -0.259,  0.000,  0.000,  3,  1.04000,  -37.6710,  'STERLING',  18.000,  27
3061,  2,  8.322,  -0.241,  0.000,  0.000,  3,  1.04000,  -38.8668,  'STERLING',  18.000,  27
3062,  2,  6.890,  -3.051,  0.000,  0.000,  3,  1.04000,  -40.3443,  'STERLING',  18.000,  27
3063,  2,  7.862,  -0.257,  0.000,  0.000,  3,  1.04000,  -39.7075,  'STERLING',  18.000,  27
3065,  2,  6.691,  -5.692,  0.000,  0.000,  3,  1.01363,  -35.7907,  'ROSCOE 4',  18.000,  27
3066,  1,  0.000,  0.000,  0.000,  0.000,  3,  1.02435,  -55.7599,  'BRADY 0 ',  115.00,  28
3068,  2,  25.764,  0.278,  0.000,  0.000,  3,  1.04000,  -37.2791,  'TRENT 1 ',  20.000,  27
3071,  2,  10.250,  -3.268,  0.000,  0.000,  3,  1.00773,  -37.1430,  'NOLAN 1 ',  24.000,  27
3073,  1,  0.000,  0.000,  0.000,  0.000,  3,  1.00710,  -75.6985,  'BRACKETT',  115.00,  28
3074,  2,  0.000,  0.000,  0.000,  0.000,  3,  1.00000,  -74.2966,  'BRACKETT',  13.800,  28
3075,  1,  0.000,  0.000,  0.000,  0.000,  3,  1.02732,  -53.3596,  'MASON 0 ',  115.00,  28
3076,  1,  0.000,  0.000,  0.000,  0.000,  3,  1.00887,  -75.8565,  'BRACKETT',  115.00,  28
3081,  2,  15.833,  -2.935,  0.000,  0.000,  3,  1.04000,  -38.2757,  'HERMLEIG',  20.000,  27
3084,  2,  20.228,  -9.191,  0.000,  0.000,  3,  1.00000,  -37.9243,  'MERKEL 1',  13.800,  27
3086,  2,  12.862,  -3.096,  0.000,  0.000,  3,  1.00652,  -34.3122,  'LORAINE ',  13.200,  27
3087,  2,  13.702,  -3.004,  0.000,  0.000,  3,  1.00723,  -33.5559,  'LORAINE ',  13.200,  27
3092,  2,  25.035,  4.984,  0.000,  0.000,  3,  1.04000,  -42.6621,  'ABILENE ',  13.800,  27
3093,  1,  0.000,  0.000,  0.000,  0.000,  3,  1.01400,  -75.3170,  'ROCKSPRI',  115.00,  28
3095,  2,  20.098,  4.545,  0.000,  0.000,  3,  1.04000,  -37.2994,  'MERKEL 2',  18.000,  27
3098,  2,  9.314,  -1.843,  0.000,  0.000,  3,  1.04000,  -34.6395,  'FLUVANNA',  13.800,  27
3101,  1,  0.000,  0.000,  0.000,  0.000,  3,  1.01843,  -61.8061,  'BUCHANAN',  115.00,  28
3104,  1,  0.000,  0.000,  0.000,  0.000,  3,  1.01764,  -62.8301,  'BUCHANAN',  115.00,  28
3105,  1,  -1.038,  0.740,  0.000,  0.000,  3,  1.01682,  -62.7500,  'BUCHANAN',  13.200,  28
3106,  3,  0.000,  0.000,  0.000,  0.000,  3,  1.00000,  -61.6363,  'BUCHANAN',  13.200,  28
3107,  1,  0.000,  0.000,  0.000,  0.000,  3,  1.01310,  -72.1218,  'INGRAM 0',  115.00,  28
3108,  1,  0.000,  0.000,  0.000,  0.000,  3,  1.01758,  -64.1548,  'KEMPNER ',  115.00,  28
3110,  2,  9.506,  -2.144,  0.000,  0.000,  3,  1.04000,  -35.2385,  'FLUVANNA',  13.800,  27
3112,  2,  11.120,  -4.672,  0.000,  0.000,  3,  1.01158,  -35.8571,  'STERLING',  18.000,  27
3113,  2,  11.120,  -4.672,  0.000,  0.000,  3,  1.01158,  -35.8571,  'STERLING',  18.000,  27
3118,  2,  26.799,  -8.079,  0.000,  0.000,  3,  1.00346,  -33.3644,  'SYNDER 2',  13.800,  27
3119,  1,  0.000,  0.000,  0.000,  0.000,  3,  1.02539,  -75.3985,  'BRACKETT',  115.00,  28
3120,  2,  0.000,  0.000,  0.000,  0.000,  3,  1.02539,  -75.3985,  'BRACKETT',  13.800,  28
3122,  2,  16.163,  -1.929,  0.000,  0.000,  3,  1.00000,  -31.5826,  'ROSCOE 1',  18.000,  27
3123,  1,  0.000,  0.000,  0.000,  0.000,  3,  1.00434,  -77.3456,  'UVALDE 0',  115.00,  28
3124,  1,  0.000,  -25.545,  0.000,  0.000,  3,  1.03000,  -70.7553,  'FREDERIC',  115.00,  28
3126,  1,  -0.001,  -45.617,  0.000,  0.000,  3,  1.00682,  -79.1767,  'SABINAL ',  115.00,  28
3127,  2,  16.335,  -4.297,  0.000,  0.000,  3,  1.02039,  -36.8042,  'SWEETWAT',  115.00,  27
3129,  2,  23.344,  -31.825,  0.000,  0.000,  3,  1.02600,  -36.9399,  'ROSCOE 3',  115.00,  27
3131,  2,  70.037,  -11.922,  0.000,  0.000,  3,  1.02000,  -40.2108,  'TUSOCOLA',  115.00,  27
3132,  1,  0.000,  0.000,  0.000,  0.000,  3,  1.02606,  -53.2499,  'EDEN 0  ',  115.00,  28
3137,  2,  81.612,  -14.944,  0.000,  0.000,  3,  1.03000,  -40.9644,  'SWEETWAT',  115.00,  27
3138,  1,  0.000,  0.000,  0.000,  0.000,  3,  1.02909,  -53.0128,  'MENARD 0',  115.00,  28
3141,  2,  30.082,  -11.182,  0.000,  0.000,  3,  1.02231,  -37.7425,  'SWEETWAT',  115.00,  27
3142,  1,  41.400,  -17.697,  0.000,  0.000,  3,  1.02976,  -53.6236,  'GOODFELL',  115.00,  27
3143,  1,  0.000,  -13.267,  0.000,  0.000,  3,  1.02984,  -52.2441,  'SANTA AN',  115.00,  28
3144,  1,  0.000,  0.000,  0.000,  0.000,  3,  1.02763,  -52.8458,  'ROWENA 0',  115.00,  28
3146,  1,  0.000,  0.000,  0.000,  0.000,  3,  1.02930,  -51.4513,  'JUNCTION',  115.00,  28
3147,  1,  -0.005,  -6.049,  0.000,  0.000,  3,  1.02999,  -62.8749,  'LAMPASAS',  115.00,  28
4002,  1,  0.000,  0.000,  0.000,  0.000,  4,  1.01952,  -75.5566,  'LAUGHLIN',  115.00,  20
4004,  1,  0.000,  0.000,  0.000,  0.000,  4,  1.02843,  -78.7589,  'LAREDO 7',  230.00,  20
4005,  1,  0.000,  -52.331,  0.000,  0.000,  4,  1.02998,  -81.4855,  'LAREDO 7',  115.00,  20
4006,  1,  0.000,  0.000,  0.000,  0.000,  4,  1.02963,  -80.2669,  'BRUNI 2 ',  115.00,  20
4008,  1,  0.000,  0.000,  0.000,  0.000,  4,  1.01693,  -68.2449,  'POTEET 0',  115.00,  20
4010,  2,  9.583,  -5.696,  0.000,  0.000,  4,  1.03000,  -80.9670,  'SARITA 3',  20.000,  21
4011,  1,  27.708,  -9.342,  0.000,  0.000,  4,  1.02583,  -84.1147,  'HEBBRONV',  115.00,  19
4014,  1,  0.000,  0.000,  0.000,  0.000,  4,  1.02763,  -73.7622,  'EAGLE PA',  230.00,  20
4015,  1,  0.000,  -37.788,  0.000,  0.000,  4,  1.02998,  -74.6462,  'EAGLE PA',  115.00,  20
4016,  1,  0.000,  0.000,  0.000,  0.000,  4,  1.02469,  -67.8535,  'CHARLOTT',  115.00,  20
4022,  1,  0.000,  0.000,  0.000,  0.000,  4,  1.02149,  -80.0224,  'ENCINAL ',  115.00,  20
4023,  1,  0.000,  0.000,  0.000,  0.000,  4,  1.02306,  -67.7475,  'MOORE 0 ',  115.00,  20
4024,  1,  0.000,  0.000,  0.000,  0.000,  4,  1.02898,  -66.1317,  'CHRISTIN',  230.00,  20
4025,  1,  0.000,  0.000,  0.000,  0.000,  4,  1.02785,  -67.3320,  'CHRISTIN',  115.00,  20
4026,  2,  0.000,  0.000,  0.000,  0.000,  4,  1.03000,  -63.9186,  'CHRISTIN',  13.800,  20
4029,  1,  12.618,  5.439,  0.000,  0.000,  4,  1.01528,  -61.3156,  'FANNIN 1',  115.00,  21
4030,  3,  -2.985,  -0.028,  0.000,  0.000,  4,  1.01000,  -58.3747,  'FANNIN 2',  13.800,  21
4031,  1,  0.000,  0.000,  0.000,  0.000,  4,  1.02376,  -84.3297,  'SAN YGNA',  115.00,  20
4033,  1,  0.000,  0.000,  0.000,  0.000,  4,  1.01827,  -82.1893,  'LAREDO 6',  115.00,  20
4036,  1,  0.000,  0.000,  0.000,  0.000,  4,  1.01387,  -74.4200,  'CRYSTAL ',  115.00,  20
4043,  1,  55.337,  -4.866,  0.000,  0.000,  4,  1.01475,  -89.2956,  'FALCON H',  115.00,  19
4050,  2,  19.586,  -7.803,  0.000,  0.000,  4,  1.01044,  -91.7667,  'SEBASTIA',  13.800,  19
4058,  2,  24.473,  1.817,  0.000,  0.000,  4,  1.03000,  -74.2345,  'GREGORY ',  13.800,  21
4059,  2,  25.028,  1.741,  0.000,  0.000,  4,  1.03000,  -74.4471,  'GREGORY ',  13.800,  21
4060,  2,  19.949,  1.140,  0.000,  0.000,  4,  1.03000,  -73.6297,  'GREGORY ',  13.800,  21
4061,  2,  25.210,  1.858,  0.000,  0.000,  4,  1.03000,  -73.9911,  'GREGORY ',  13.800,  21
4062,  2,  23.450,  1.002,  0.000,  0.000,  4,  1.03000,  -73.5900,  'GREGORY ',  13.800,  21
4063,  2,  24.814,  2.149,  0.000,  0.000,  4,  1.03000,  -73.9619,  'GREGORY ',  13.800,  21
4073,  1,  1144.116,  -190.418,  0.000,  0.000,  4,  1.02532,  -92.2648,  'MISSION ',  230.00,  19
4082,  2,  4.683,  -0.619,  0.000,  0.000,  4,  1.04000,  -79.4024,  'CORPUS C',  13.800,  21
4083,  2,  4.818,  -0.669,  0.000,  0.000,  4,  1.04000,  -79.5572,  'CORPUS C',  13.800,  21
4084,  2,  10.204,  -2.732,  0.000,  0.000,  4,  1.04000,  -80.3784,  'CORPUS C',  13.800,  21
4085,  2,  12.397,  -3.280,  0.000,  0.000,  4,  1.04000,  -80.1443,  'CORPUS C',  13.800,  21
4101,  1,  0.000,  0.000,  0.000,  0.000,  4,  1.01539,  -82.1711,  'LAREDO 3',  115.00,  20
4105,  2,  74.260,  1.415,  0.000,  0.000,  4,  1.01000,  -77.4452,  'TAFT 2 1',  18.000,  21
4113,  1,  0.000,  0.000,  0.000,  0.000,  4,  1.02907,  -80.0378,  'LAREDO 1',  230.00,  20
4114,  1,  0.000,  0.000,  0.000,  0.000,  4,  1.02407,  -81.3011,  'LAREDO 1',  115.00,  20
4115,  2,  0.000,  0.000,  0.000,  0.000,  4,  1.04000,  -78.9048,  'LAREDO 1',  13.800,  20
4116,  2,  0.000,  0.000,  0.000,  0.000,  4,  1.04000,  -78.8508,  'LAREDO 1',  13.800,  20
4117,  1,  0.000,  0.000,  0.000,  0.000,  4,  1.02625,  -67.8633,  'JOURDANT',  115.00,  20
4118,  1,  40.572,  -5.257,  0.000,  0.000,  4,  1.01692,  -82.4075,  'GEORGE W',  115.00,  21
4125,  1,  39.512,  2.922,  0.000,  0.000,  4,  1.00987,  -69.1615,  'PETTUS 0',  115.00,  21
4129,  1,  0.000,  0.000,  0.000,  0.000,  4,  1.03408,  -81.1280,  'PREMONT ',  115.00,  20
4130,  1,  0.000,  -7.044,  0.000,  0.000,  4,  1.02999,  -82.0641,  'FREER 0 ',  115.00,  20
4131,  1,  -0.001,  -71.069,  0.000,  0.000,  4,  1.02999,  -70.4047,  'PEARSALL',  230.00,  20
4132,  1,  0.000,  0.000,  0.000,  0.000,  4,  1.02663,  -71.3993,  'PEARSALL',  115.00,  20
4133,  2,  0.000,  0.000,  0.000,  0.000,  4,  1.02999,  -70.4047,  'PEARSALL',  20.000,  20
4134,  2,  0.000,  0.000,  0.000,  0.000,  4,  1.02999,  -70.4047,  'PEARSALL',  20.000,  20
4135,  2,  0.000,  0.000,  0.000,  0.000,  4,  1.02999,  -70.4047,  'PEARSALL',  20.000,  20
4136,  2,  0.000,  0.000,  0.000,  0.000,  4,  1.02999,  -70.4047,  'PEARSALL',  20.000,  20
4137,  2,  0.000,  0.000,  0.000,  0.000,  4,  1.02999,  -70.4047,  'PEARSALL',  20.000,  20
4138,  2,  0.000,  0.000,  0.000,  0.000,  4,  1.02999,  -70.4047,  'PEARSALL',  20.000,  20
4140,  1,  110.311,  -32.190,  0.000,  0.000,  4,  1.03533,  -82.4953,  'SARITA 1',  230.00,  21
4142,  2,  0.000,  0.000,  0.000,  0.000,  4,  1.04000,  -81.3378,  'SARITA 1',  13.800,  21
4143,  1,  0.000,  0.000,  0.000,  0.000,  4,  1.01813,  -73.4506,  'DILLEY 0',  115.00,  20
4146,  1,  0.000,  0.000,  0.000,  0.000,  4,  1.02688,  -80.3592,  'LAREDO 4',  230.00,  20
4147,  1,  0.000,  -97.251,  0.000,  0.000,  4,  1.02996,  -81.8012,  'LAREDO 4',  115.00,  20
4148,  1,  0.000,  0.000,  0.000,  0.000,  4,  1.01916,  -82.8796,  'THREE RI',  115.00,  20
4153,  2,  4.072,  -22.737,  0.000,  0.000,  4,  1.04000,  -83.2500,  'ARMSTRON',  18.000,  21
4160,  2,  59.776,  5.689,  0.000,  0.000,  4,  1.03000,  -76.7092,  'CORPUS C',  13.800,  21
4161,  2,  31.714,  2.743,  0.000,  0.000,  4,  1.03000,  -75.5793,  'CORPUS C',  13.800,  21
4162,  2,  32.041,  2.101,  0.000,  0.000,  4,  1.03000,  -75.6021,  'CORPUS C',  13.800,  21
4166,  2,  10.090,  -4.637,  0.000,  0.000,  4,  1.01438,  -80.1643,  'SARITA 2',  13.800,  21
4172,  1,  0.000,  0.000,  0.000,  0.000,  4,  1.02178,  -69.3244,  'PLEASANT',  115.00,  20
4174,  1,  -0.002,  -33.595,  0.000,  0.000,  4,  1.03000,  -67.1449,  'LYTLE 0 ',  115.00,  20
4175,  1,  0.000,  -9.808,  0.000,  0.000,  4,  1.02997,  -80.8520,  'LAREDO 2',  115.00,  20
4176,  1,  0.000,  0.000,  0.000,  0.000,  4,  1.03842,  -79.0613,  'BRUNI 1 ',  115.00,  20
4177,  2,  0.000,  0.000,  0.000,  0.000,  4,  1.04000,  -77.1937,  'BRUNI 1 ',  13.800,  20
4178,  1,  54.306,  -41.228,  0.000,  0.000,  4,  1.03000,  -71.0645,  'GOLIAD 0',  115.00,  21
4179,  1,  0.000,  0.000,  0.000,  0.000,  4,  1.02552,  -82.5737,  'SAN DIEG',  115.00,  20
4181,  2,  108.251,  -10.779,  0.000,  0.000,  4,  1.02419,  -74.8141,  'TAFT 1 0',  230.00,  21
4183,  2,  53.457,  -6.761,  0.000,  0.000,  4,  1.02730,  -86.3106,  'SAN PERL',  230.00,  19
4187,  1,  0.000,  0.000,  0.000,  0.000,  4,  1.01431,  -78.4550,  'COTULLA ',  115.00,  20
4188,  1,  0.000,  0.000,  0.000,  0.000,  4,  1.02898,  -75.1880,  'QUEMADO ',  115.00,  20
...
 0 /End of Bus data, Begin Generator data
1004,  '1',  87.896,  -30.380,  44.940,  -30.380,  1.01000,  0,  253.200,  0.00000,  1.00000,  0.00000,  0.00000,  1.00000,  1,  100.0,  211.000,  63.300
1009,  '1',  34.364,  -11.880,  17.570,  -11.880,  1.00000,  0,  99.000,  0.00000,  1.00000,  0.00000,  0.00000,  1.00000,  1,  100.0,  82.500,  24.750
1021,  '1',  83.108,  -28.730,  42.490,  -28.730,  1.00000,  0,  239.400,  0.00000,  1.00000,  0.00000,  0.00000,  1.00000,  1,  100.0,  199.500,  59.850
1023,  '1',  74.982,  -13.800,  38.340,  -25.920,  1.01000,  0,  216.000,  0.00000,  1.00000,  0.00000,  0.00000,  1.00000,  1,  100.0,  180.000,  54.000
1026,  '1',  51.738,  -17.880,  26.450,  -17.880,  1.00000,  0,  149.040,  0.00000,  1.00000,  0.00000,  0.00000,  1.00000,  1,  100.0,  124.200,  37.260
1033,  '1',  115.806,  -40.030,  59.210,  -40.030,  1.00000,  0,  333.600,  0.00000,  1.00000,  0.00000,  0.00000,  1.00000,  1,  100.0,  278.000,  83.400
1035,  '1',  37.491,  -12.960,  19.170,  -12.960,  1.00000,  0,  108.000,  0.00000,  1.00000,  0.00000,  0.00000,  1.00000,  1,  100.0,  90.000,  27.000
1039,  '1',  61.446,  -21.240,  31.420,  -21.240,  1.00000,  0,  177.000,  0.00000,  1.00000,  0.00000,  0.00000,  1.00000,  1,  100.0,  147.500,  44.250
1042,  '1',  67.706,  -11.257,  25.960,  -17.550,  1.00000,  0,  146.280,  0.00000,  1.00000,  0.00000,  0.00000,  1.00000,  1,  100.0,  121.900,  36.570
1048,  '1',  97.560,  -16.676,  165.530,  -36.100,  1.00000,  0,  390.240,  0.00000,  0.10170,  0.00000,  0.00000,  1.00000,  1,  100.0,  325.200,  97.560
1049,  '1',  97.560,  -4.995,  165.530,  -36.100,  1.00000,  0,  390.240,  0.00000,  0.13490,  0.00000,  0.00000,  1.00000,  1,  100.0,  325.200,  97.560
1053,  '1',  53.640,  -19.850,  91.010,  -19.850,  1.00000,  0,  214.560,  0.00000,  0.16870,  0.00000,  0.00000,  1.00000,  1,  100.0,  178.800,  53.640
1057,  '1',  66.651,  -17.280,  25.560,  -17.280,  1.00000,  0,  144.000,  0.00000,  1.00000,  0.00000,  0.00000,  1.00000,  1,  100.0,  120.000,  36.000
1066,  '1',  59.364,  -11.285,  30.350,  -20.520,  1.00000,  0,  171.000,  0.00000,  1.00000,  0.00000,  0.00000,  1.00000,  1,  100.0,  142.500,  42.750
1070,  '1',  66.862,  18.638,  34.190,  -23.110,  1.04000,  0,  192.600,  0.00000,  1.00000,  0.00000,  0.00000,  1.00000,  1,  100.0,  160.500,  48.150
1072,  '1',  -28.905,  -6.614,  97.800,  -21.330,  1.01000,  0,  230.560,  0.00000,  0.30820,  0.00000,  0.00000,  1.00000,  1,  100.0,  192.130,  57.640
1073,  '1',  57.640,  -9.340,  97.800,  -21.330,  1.01000,  0,  230.560,  0.00000,  0.19480,  0.00000,  0.00000,  1.00000,  1,  100.0,  192.130,  57.640
1074,  '1',  57.640,  -6.626,  97.800,  -21.330,  1.01000,  0,  230.560,  0.00000,  0.20960,  0.00000,  0.00000,  1.00000,  1,  100.0,  192.130,  57.640
1075,  '1',  57.640,  -8.026,  97.800,  -21.330,  1.01000,  0,  230.560,  0.00000,  0.12370,  0.00000,  0.00000,  1.00000,  1,  100.0,  192.130,  57.640
1076,  '1',  57.640,  -15.973,  97.800,  -21.330,  1.01000,  0,  230.560,  0.00000,  0.10660,  0.00000,  0.00000,  1.00000,  1,  100.0,  192.130,  57.640
1077,  '1',  57.640,  -7.294,  97.800,  -21.330,  1.01000,  0,  230.560,  0.00000,  0.15380,  0.00000,  0.00000,  1.00000,  1,  100.0,  192.130,  57.640
1081,  '1',  85.950,  -25.045,  145.830,  -31.800,  1.01000,  0,  343.800,  0.00000,  0.14960,  0.00000,  0.00000,  1.00000,  1,  100.0,  286.500,  85.950
1082,  '1',  62.485,  -21.600,  31.950,  -21.600,  1.00000,  0,  180.000,  0.00000,  1.00000,  0.00000,  0.00000,  1.00000,  1,  100.0,  150.000,  45.000
1084,  '1',  48.111,  24.600,  24.600,  -16.630,  1.04000,  0,  138.600,  0.00000,  1.00000,  0.00000,  0.00000,  1.00000,  1,  100.0,  115.500,  34.650
1088,  '1',  31.243,  -7.571,  15.970,  -10.800,  1.00000,  0,  90.000,  0.00000,  1.00000,  0.00000,  0.00000,  1.00000,  1,  100.0,  75.000,  22.500
2004,  '1',  117.540,  -43.490,  199.430,  -43.490,  1.02000,  0,  470.160,  0.00000,  0.10640,  0.00000,  0.00000,  1.00000,  1,  100.0,  391.800,  117.540
2005,  '1',  117.540,  -43.490,  199.430,  -43.490,  1.02000,  0,  470.160,  0.00000,  0.22750,  0.00000,  0.00000,  1.00000,  1,  100.0,  391.800,  117.540
2006,  '1',  117.540,  -30.573,  199.430,  -43.490,  1.02000,  0,  470.160,  0.00000,  0.20040,  0.00000,  0.00000,  1.00000,  1,  100.0,  391.800,  117.540
2013,  '1',  78.356,  -28.890,  42.730,  -28.890,  1.00000,  0,  240.720,  0.00000,  1.00000,  0.00000,  0.00000,  1.00000,  1,  100.0,  200.600,  60.180
2024,  '1',  50.000,  -18.500,  84.830,  -18.500,  1.02000,  0,  200.000,  0.00000,  0.15080,  0.00000,  0.00000,  1.00000,  1,  100.0,  166.670,  50.000
2057,  '1',  187.098,  -233.821,  335.520,  -87.840,  0.99000,  0,  864.000,  0.00000,  0.17700,  0.00000,  0.00000,  1.00000,  1,  100.0,  720.000,  216.000
2062,  '1',  33.898,  -15.308,  28.840,  -19.500,  1.02000,  0,  162.480,  0.00000,  1.00000,  0.00000,  0.00000,  1.00000,  1,  100.0,  135.400,  40.620
2071,  '1',  47.004,  -21.600,  31.950,  -21.600,  1.00000,  0,  180.000,  0.00000,  1.00000,  0.00000,  0.00000,  1.00000,  1,  100.0,  150.000,  45.000
2078,  '1',  35.255,  -12.687,  23.960,  -16.200,  1.02000,  0,  135.000,  0.00000,  1.00000,  0.00000,  0.00000,  1.00000,  1,  100.0,  112.500,  33.750
2095,  '1',  41.405,  -11.450,  16.930,  -11.450,  1.00000,  0,  95.400,  0.00000,  1.00000,  0.00000,  0.00000,  1.00000,  1,  100.0,  79.500,  23.850
2100,  '1',  68.536,  -21.600,  31.950,  -21.600,  1.02000,  0,  180.000,  0.00000,  1.00000,  0.00000,  0.00000,  1.00000,  1,  100.0,  150.000,  45.000
2103,  '1',  80.320,  -29.720,  136.280,  -29.720,  1.00000,  0,  321.280,  0.00000,  0.33430,  0.00000,  0.00000,  1.00000,  1,  100.0,  267.730,  80.320
2104,  '1',  80.320,  -29.720,  136.280,  -29.720,  1.00000,  0,  321.280,  0.00000,  0.31470,  0.00000,  0.00000,  1.00000,  1,  100.0,  267.730,  80.320
2105,  '1',  80.320,  -29.720,  136.280,  -29.720,  1.00000,  0,  321.280,  0.00000,  0.14160,  0.00000,  0.00000,  1.00000,  1,  100.0,  267.730,  80.320
2115,  '1',  55.410,  -20.500,  94.020,  -20.500,  1.00000,  0,  221.660,  0.00000,  0.14250,  0.00000,  0.00000,  1.00000,  1,  100.0,  184.720,  55.410
2116,  '1',  55.410,  -20.500,  94.020,  -20.500,  1.00000,  0,  221.660,  0.00000,  0.18690,  0.00000,  0.00000,  1.00000,  1,  100.0,  184.720,  55.410
2117,  '1',  55.410,  -20.500,  94.020,  -20.500,  1.00000,  0,  221.660,  0.00000,  0.32540,  0.00000,  0.00000,  1.00000,  1,  100.0,  184.720,  55.410
2118,  '1',  55.410,  -20.500,  94.020,  -20.500,  1.00000,  0,  221.660,  0.00000,  0.10610,  0.00000,  0.00000,  1.00000,  1,  100.0,  184.720,  55.410
2119,  '1',  55.410,  -20.500,  94.020,  -20.500,  1.00000,  0,  221.660,  0.00000,  0.13600,  0.00000,  0.00000,  1.00000,  1,  100.0,  184.720,  55.410
2120,  '1',  55.410,  -20.500,  94.020,  -20.500,  1.01000,  0,  221.660,  0.00000,  0.20680,  0.00000,  0.00000,  1.00000,  1,  100.0,  184.720,  55.410
2123,  '1',  50.339,  -26.160,  38.700,  -26.160,  1.00000,  0,  218.040,  0.00000,  1.00000,  0.00000,  0.00000,  1.00000,  1,  100.0,  181.700,  54.510
2127,  '1',  59.530,  -41.560,  61.470,  -41.560,  1.04000,  0,  346.320,  0.00000,  1.00000,  0.00000,  0.00000,  1.00000,  1,  100.0,  288.600,  86.580
3017,  '1',  70.611,  -12.345,  36.100,  -24.410,  1.01000,  0,  203.400,  0.00000,  1.00000,  0.00000,  0.00000,  1.00000,  1,  100.0,  169.500,  50.850
3020,  '1',  62.485,  -1.247,  31.950,  -21.600,  1.03000,  0,  180.000,  0.00000,  1.00000,  0.00000,  0.00000,  1.00000,  1,  100.0,  150.000,  45.000
3028,  '1',  62.672,  6.253,  42.600,  -28.800,  1.04000,  0,  240.000,  0.00000,  1.00000,  0.00000,  0.00000,  1.00000,  1,  100.0,  200.000,  60.000
3034,  '1',  54.359,  2.488,  27.800,  -18.790,  1.03000,  0,  156.600,  0.00000,  1.00000,  0.00000,  0.00000,  1.00000,  1,  100.0,  130.500,  39.150
3039,  '1',  87.063,  12.551,  44.520,  -30.100,  1.04000,  0,  250.800,  0.00000,  1.00000,  0.00000,  0.00000,  1.00000,  1,  100.0,  209.000,  62.700
3045,  '1',  134.100,  7.959,  227.520,  -49.620,  1.04000,  0,  536.400,  0.00000,  0.14470,  0.00000,  0.00000,  1.00000,  1,  100.0,  447.000,  134.100
3048,  '1',  100.393,  -34.700,  51.330,  -34.700,  1.04000,  0,  289.200,  0.00000,  1.00000,  0.00000,  0.00000,  1.00000,  1,  100.0,  241.000,  72.300
3055,  '1',  102.131,  11.361,  52.220,  -35.300,  1.04000,  0,  294.200,  0.00000,  1.00000,  0.00000,  0.00000,  1.00000,  1,  100.0,  245.170,  73.550
3056,  '1',  102.131,  7.326,  52.220,  -35.300,  1.04000,  0,  294.200,  0.00000,  1.00000,  0.00000,  0.00000,  1.00000,  1,  100.0,  245.170,  73.550
3057,  '1',  102.131,  6.381,  52.220,  -35.300,  1.04000,  0,  294.200,  0.00000,  1.00000,  0.00000,  0.00000,  1.00000,  1,  100.0,  245.170,  73.550
3060,  '1',  68.995,  3.727,  35.280,  -23.850,  1.04000,  0,  198.750,  0.00000,  1.00000,  0.00000,  0.00000,  1.00000,  1,  100.0,  165.630,  49.690
3061,  '1',  68.995,  4.112,  35.280,  -23.850,  1.04000,  0,  198.750,  0.00000,  1.00000,  0.00000,  0.00000,  1.00000,  1,  100.0,  165.630,  49.690
3062,  '1',  68.995,  5.777,  35.280,  -23.850,  1.04000,  0,  198.750,  0.00000,  1.00000,  0.00000,  0.00000,  1.00000,  1,  100.0,  165.630,  49.690
3063,  '1',  68.995,  4.195,  35.280,  -23.850,  1.04000,  0,  198.750,  0.00000,  1.00000,  0.00000,  0.00000,  1.00000,  1,  100.0,  165.630,  49.690
3065,  '1',  33.531,  -11.590,  17.150,  -11.590,  1.00000,  0,  96.600,  0.00000,  1.00000,  0.00000,  0.00000,  1.00000,  1,  100.0,  80.500,  24.150
3068,  '1',  62.485,  19.228,  31.950,  -21.600,  1.04000,  0,  180.000,  0.00000,  1.00000,  0.00000,  0.00000,  1.00000,  1,  100.0,  150.000,  45.000
3071,  '1',  70.900,  -24.510,  36.250,  -24.510,  1.00000,  0,  204.240,  0.00000,  1.00000,  0.00000,  0.00000,  1.00000,  1,  100.0,  170.200,  51.060
3074,  '1',  41.573,  -12.610,  21.260,  -14.370,  1.00000,  0,  119.760,  0.00000,  1.00000,  0.00000,  0.00000,  1.00000,  1,  100.0,  99.800,  29.940
3081,  '1',  103.725,  7.915,  53.040,  -35.860,  1.04000,  0,  298.800,  0.00000,  1.00000,  0.00000,  0.00000,  1.00000,  1,  100.0,  249.000,  74.700
3084,  '1',  96.849,  -29.610,  49.520,  -33.480,  1.00000,  0,  279.000,  0.00000,  1.00000,  0.00000,  0.00000,  1.00000,  1,  100.0,  232.500,  69.750
3086,  '1',  31.243,  -10.800,  15.970,  -10.800,  1.00000,  0,  90.000,  0.00000,  1.00000,  0.00000,  0.00000,  1.00000,  1,  100.0,  75.000,  22.500
3087,  '1',  41.657,  -10.800,  15.970,  -10.800,  1.00000,  0,  90.000,  0.00000,  1.00000,  0.00000,  0.00000,  1.00000,  1,  100.0,  75.000,  22.500
3092,  '1',  83.313,  8.064,  42.600,  -28.800,  1.04000,  0,  240.000,  0.00000,  1.00000,  0.00000,  0.00000,  1.00000,  1,  100.0,  200.000,  60.000
3095,  '1',  50.238,  6.437,  25.690,  -17.370,  1.04000,  0,  144.720,  0.00000,  1.00000,  0.00000,  0.00000,  1.00000,  1,  100.0,  120.600,  36.180
3098,  '1',  66.651,  5.711,  34.080,  -23.040,  1.04000,  0,  192.000,  0.00000,  1.00000,  0.00000,  0.00000,  1.00000,  1,  100.0,  160.000,  48.000
3106,  '1',  14.821,  -14.878,  62.477,  -2.690,  1.00000,  0,  65.880,  0.00000,  0.29220,  0.00000,  0.00000,  1.00000,  1,  100.0,  162.800,  0.000
3110,  '1',  34.992,  4.288,  17.890,  -12.100,  1.04000,  0,  100.800,  0.00000,  1.00000,  0.00000,  0.00000,  1.00000,  1,  100.0,  84.000,  25.200
3112,  '1',  31.159,  -10.770,  15.930,  -10.770,  1.00000,  0,  89.760,  0.00000,  1.00000,  0.00000,  0.00000,  1.00000,  1,  100.0,  74.800,  22.440
3113,  '1',  31.159,  -10.770,  15.930,  -10.770,  1.00000,  0,  89.760,  0.00000,  1.00000,  0.00000,  0.00000,  1.00000,  1,  100.0,  74.800,  22.440
3118,  '1',  49.988,  -17.280,  25.560,  -17.280,  1.00000,  0,  144.000,  0.00000,  1.00000,  0.00000,  0.00000,  1.00000,  1,  100.0,  120.000,  36.000
3120,  '1',  0.000,  0.000,  0.000,  0.000,  1.00000,  0,  47.520,  0.00000,  1.00000,  0.00000,  0.00000,  1.00000,  0,  100.0,  39.600,  11.880
3122,  '1',  82.064,  -20.764,  41.960,  -28.370,  1.00000,  0,  236.400,  0.00000,  1.00000,  0.00000,  0.00000,  1.00000,  1,  100.0,  197.000,  59.100
3127,  '1',  56.237,  -19.440,  28.760,  -19.440,  1.00000,  0,  162.000,  0.00000,  1.00000,  0.00000,  0.00000,  1.00000,  1,  100.0,  135.000,  40.500
3129,  '1',  52.699,  -18.220,  26.940,  -18.220,  1.00000,  0,  151.800,  0.00000,  1.00000,  0.00000,  0.00000,  1.00000,  1,  100.0,  126.500,  37.950
3131,  '1',  47.489,  -16.027,  24.280,  -16.420,  1.02000,  0,  136.800,  0.00000,  1.00000,  0.00000,  0.00000,  1.00000,  1,  100.0,  114.000,  34.200
3137,  '1',  42.157,  13.970,  21.560,  -14.570,  1.03000,  0,  121.440,  0.00000,  1.00000,  0.00000,  0.00000,  1.00000,  1,  100.0,  101.200,  30.360
3141,  '1',  38.113,  -13.180,  19.490,  -13.180,  1.00000,  0,  109.800,  0.00000,  1.00000,  0.00000,  0.00000,  1.00000,  1,  100.0,  91.500,  27.450
4010,  '1',  83.980,  2.100,  42.940,  -29.030,  1.03000,  0,  241.920,  0.00000,  1.00000,  0.00000,  0.00000,  1.00000,  1,  100.0,  201.600,  60.480
4026,  '1',  123.000,  2.792,  191.060,  -50.020,  1.03000,  0,  492.000,  0.00000,  0.32770,  0.00000,  0.00000,  1.00000,  1,  100.0,  410.000,  123.000
4030,  '1',  180.251,  -36.877,  290.040,  -75.930,  1.01000,  0,  746.880,  0.00000,  0.27970,  0.00000,  0.00000,  1.00000,  1,  100.0,  622.400,  186.720
4050,  '1',  83.313,  -28.800,  42.600,  -28.800,  1.00000,  0,  240.000,  0.00000,  1.00000,  0.00000,  0.00000,  1.00000,  1,  100.0,  200.000,  60.000
4058,  '1',  43.200,  5.794,  73.300,  -15.980,  1.03000,  0,  172.800,  0.00000,  0.13700,  0.00000,  0.00000,  1.00000,  1,  100.0,  144.000,  43.200
4059,  '1',  43.200,  6.140,  73.300,  -15.980,  1.03000,  0,  172.800,  0.00000,  0.15140,  0.00000,  0.00000,  1.00000,  1,  100.0,  144.000,  43.200
4060,  '1',  43.200,  4.006,  73.300,  -15.980,  1.03000,  0,  172.800,  0.00000,  0.13940,  0.00000,  0.00000,  1.00000,  1,  100.0,  144.000,  43.200
4061,  '1',  51.700,  5.777,  87.720,  -19.130,  1.03000,  0,  206.800,  0.00000,  0.21560,  0.00000,  0.00000,  1.00000,  1,  100.0,  172.330,  51.700
4062,  '1',  51.700,  3.945,  87.720,  -19.130,  1.03000,  0,  206.800,  0.00000,  0.25930,  0.00000,  0.00000,  1.00000,  1,  100.0,  172.330,  51.700
4063,  '1',  51.700,  6.335,  87.720,  -19.130,  1.03000,  0,  206.800,  0.00000,  0.14410,  0.00000,  0.00000,  1.00000,  1,  100.0,  172.330,  51.700
4082,  '1',  73.020,  11.495,  123.890,  -27.020,  1.04000,  0,  292.080,  0.00000,  0.13810,  0.00000,  0.00000,  1.00000,  1,  100.0,  243.400,  73.020
4083,  '1',  73.020,  12.430,  123.890,  -27.020,  1.04000,  0,  292.080,  0.00000,  0.15700,  0.00000,  0.00000,  1.00000,  1,  100.0,  243.400,  73.020
4084,  '1',  73.020,  23.391,  123.890,  -27.020,  1.04000,  0,  292.080,  0.00000,  0.19110,  0.00000,  0.00000,  1.00000,  1,  100.0,  243.400,  73.020
4085,  '1',  105.600,  26.359,  179.170,  -39.070,  1.04000,  0,  422.400,  0.00000,  0.31920,  0.00000,  0.00000,  1.00000,  1,  100.0,  352.000,  105.600
4105,  '1',  56.405,  -17.281,  38.340,  -25.920,  1.01000,  0,  216.000,  0.00000,  1.00000,  0.00000,  0.00000,  1.00000,  1,  100.0,  180.000,  54.000
4115,  '1',  39.540,  20.674,  67.090,  -14.630,  1.04000,  0,  158.160,  0.00000,  0.11310,  0.00000,  0.00000,  1.00000,  1,  100.0,  131.800,  39.540
4116,  '1',  39.540,  19.264,  67.090,  -14.630,  1.04000,  0,  158.160,  0.00000,  0.15150,  0.00000,  0.00000,  1.00000,  1,  100.0,  131.800,  39.540
4133,  '1',  0.000,  0.000,  17.100,  -3.730,  1.00000,  0,  40.320,  0.00000,  0.22730,  0.00000,  0.00000,  1.00000,  0,  100.0,  33.600,  10.080
4134,  '1',  0.000,  -3.730,  17.100,  -3.730,  1.00000,  0,  40.320,  0.00000,  0.18000,  0.00000,  0.00000,  1.00000,  0,  100.0,  33.600,  10.080
4135,  '1',  0.000,  -3.730,  17.100,  -3.730,  1.00000,  0,  40.320,  0.00000,  0.10840,  0.00000,  0.00000,  1.00000,  0,  100.0,  33.600,  10.080
4136,  '1',  0.000,  -3.730,  17.100,  -3.730,  1.00000,  0,  40.320,  0.00000,  0.18960,  0.00000,  0.00000,  1.00000,  0,  100.0,  33.600,  10.080
4137,  '1',  0.000,  0.000,  34.200,  -7.460,  1.00000,  0,  80.640,  0.00000,  0.27350,  0.00000,  0.00000,  1.00000,  0,  100.0,  67.200,  20.160
4138,  '1',  0.000,  0.000,  33.590,  -7.330,  1.00000,  0,  79.200,  0.00000,  0.16760,  0.00000,  0.00000,  1.00000,  0,  100.0,  66.000,  19.800
4142,  '1',  78.315,  16.698,  40.040,  -27.070,  1.04000,  0,  225.600,  0.00000,  1.00000,  0.00000,  0.00000,  1.00000,  1,  100.0,  188.000,  56.400
4153,  '1',  117.972,  35.011,  60.320,  -40.780,  1.04000,  0,  339.840,  0.00000,  1.00000,  0.00000,  0.00000,  1.00000,  1,  100.0,  283.200,  84.960
4160,  '1',  59.330,  15.757,  100.660,  -21.950,  1.03000,  0,  237.320,  0.00000,  0.18820,  0.00000,  0.00000,  1.00000,  1,  100.0,  197.770,  59.330
4161,  '1',  59.330,  6.912,  100.660,  -21.950,  1.03000,  0,  237.320,  0.00000,  0.12390,  0.00000,  0.00000,  1.00000,  1,  100.0,  197.770,  59.330
4162,  '1',  59.330,  5.746,  100.660,  -21.950,  1.03000,  0,  237.320,  0.00000,  0.17220,  0.00000,  0.00000,  1.00000,  1,  100.0,  197.770,  59.330
4166,  '1',  83.730,  -28.940,  42.810,  -28.940,  1.00000,  0,  241.200,  0.00000,  1.00000,  0.00000,  0.00000,  1.00000,  1,  100.0,  201.000,  60.300
4177,  '1',  62.485,  0.999,  31.950,  -21.600,  1.04000,  0,  180.000,  0.00000,  1.00000,  0.00000,  0.00000,  1.00000,  1,  100.0,  150.000,  45.000
4181,  '1',  62.701,  42.620,  42.620,  -28.810,  1.04000,  0,  240.120,  0.00000,  1.00000,  0.00000,  0.00000,  1.00000,  1,  100.0,  200.100,  60.030
4183,  '1',  84.563,  43.240,  43.240,  -29.230,  1.03000,  0,  243.600,  0.00000,  1.00000,  0.00000,  0.00000,  1.00000,  1,  100.0,  203.000,  60.900
4192,  '1',  405.690,  0.196,  688.320,  -150.120,  1.02000,  0,  1622.76,  0.00000,  0.14340,  0.00000,  0.00000,  1.00000,  1,  100.0,  1352.31,  405.690
4194,  '1',  83.980,  19.115,  42.940,  -29.030,  1.02000,  0,  241.920,  0.00000,  1.00000,  0.00000,  0.00000,  1.00000,  1,  100.0,  201.600,  60.480
4195,  '1',  38.324,  -13.250,  19.600,  -13.250,  1.00000,  0,  110.400,  0.00000,  1.00000,  0.00000,  0.00000,  1.00000,  1,  100.0,  92.000,  27.600
5020,  '1',  37.603,  -17.280,  25.560,  -17.280,  1.00000,  0,  144.000,  0.00000,  1.00000,  0.00000,  0.00000,  1.00000,  1,  100.0,  120.000,  36.000
5037,  '1',  178.910,  -34.240,  157.010,  -34.240,  1.02000,  0,  370.160,  0.00000,  0.29910,  0.00000,  0.00000,  1.00000,  1,  100.0,  308.470,  92.540
5038,  '1',  178.910,  -34.240,  157.010,  -34.240,  1.02000,  0,  370.160,  0.00000,  0.12330,  0.00000,  0.00000,  1.00000,  1,  100.0,  308.470,  92.540
5039,  '1',  178.910,  -34.240,  157.010,  -34.240,  1.02000,  0,  370.160,  0.00000,  0.21470,  0.00000,  0.00000,  1.00000,  1,  100.0,  308.470,  92.540
5040,  '1',  178.910,  -34.240,  157.010,  -34.240,  1.02000,  0,  370.160,  0.00000,  0.19240,  0.00000,  0.00000,  1.00000,  1,  100.0,  308.470,  92.540
5041,  '1',  178.910,  -34.240,  157.010,  -34.240,  1.02000,  0,  370.160,  0.00000,  0.11590,  0.00000,  0.00000,  1.00000,  1,  100.0,  308.470,  92.540
5042,  '1',  178.910,  -34.240,  157.010,  -34.240,  1.02000,  0,  370.160,  0.00000,  0.19130,  0.00000,  0.00000,  1.00000,  1,  100.0,  308.470,  92.540
5057,  '1',  184.050,  -35.230,  161.530,  -35.230,  1.00000,  0,  380.820,  0.00000,  0.19130,  0.00000,  0.00000,  1.00000,  1,  100.0,  317.350,  95.200
5058,  '1',  184.060,  -35.230,  161.530,  -35.230,  1.00000,  0,  380.820,  0.00000,  0.29820,  0.00000,  0.00000,  1.00000,  1,  100.0,  317.350,  95.200
5067,  '1',  240.137,  -21.026,  223.080,  -48.650,  1.03000,  0,  525.920,  0.00000,  0.32610,  0.00000,  0.00000,  1.00000,  1,  100.0,  438.270,  131.480
5068,  '1',  254.200,  -20.848,  223.080,  -48.650,  1.03000,  0,  525.920,  0.00000,  0.11690,  0.00000,  0.00000,  1.00000,  1,  100.0,  438.270,  131.480
5069,  '1',  254.200,  -20.019,  223.080,  -48.650,  1.03000,  0,  525.920,  0.00000,  0.10560,  0.00000,  0.00000,  1.00000,  1,  100.0,  438.270,  131.480
5166,  '1',  37.950,  15.562,  64.390,  -14.040,  1.04000,  0,  151.800,  0.00000,  0.13910,  0.00000,  0.00000,  1.00000,  1,  100.0,  126.500,  37.950
5198,  '1',  47.004,  -21.600,  31.950,  -21.600,  1.00000,  0,  180.000,  0.00000,  1.00000,  0.00000,  0.00000,  1.00000,  1,  100.0,  150.000,  45.000
5206,  '1',  74.600,  -27.600,  126.570,  -27.600,  1.01000,  0,  298.400,  0.00000,  0.11980,  0.00000,  0.00000,  1.00000,  1,  100.0,  248.670,  74.600
5207,  '1',  74.600,  -27.600,  126.570,  -27.600,  1.01000,  0,  298.400,  0.00000,  0.18090,  0.00000,  0.00000,  1.00000,  1,  100.0,  248.670,  74.600
5208,  '1',  74.600,  -27.600,  126.570,  -27.600,  1.01000,  0,  298.400,  0.00000,  0.10560,  0.00000,  0.00000,  1.00000,  1,  100.0,  248.670,  74.600
5238,  '1',  70.506,  -32.400,  47.930,  -32.400,  1.00000,  0,  270.000,  0.00000,  1.00000,  0.00000,  0.00000,  1.00000,  1,  100.0,  225.000,  67.500
5243,  '1',  47.004,  -21.600,  31.950,  -21.600,  1.00000,  0,  180.000,  0.00000,  1.00000,  0.00000,  0.00000,  1.00000,  1,  100.0,  150.000,  45.000
5262,  '1',  1215.000,  -99.630,  447.120,  -99.630,  1.01000,  0,  1458.00,  0.00000,  0.26310,  0.00000,  0.00000,  1.00000,  1,  100.0,  1215.00,  364.500
5263,  '1',  1215.000,  -99.630,  447.120,  -99.630,  1.01000,  0,  1458.00,  0.00000,  0.16260,  0.00000,  0.00000,  1.00000,  1,  100.0,  1215.00,  364.500
5281,  '1',  80.320,  -29.720,  136.280,  -29.720,  1.00000,  0,  321.280,  0.00000,  0.10660,  0.00000,  0.00000,  1.00000,  1,  100.0,  267.730,  80.320
5282,  '1',  80.320,  -29.720,  136.280,  -29.720,  1.00000,  0,  321.280,  0.00000,  0.23940,  0.00000,  0.00000,  1.00000,  1,  100.0,  267.730,  80.320
5283,  '1',  80.320,  -29.720,  136.280,  -29.720,  1.00000,  0,  321.280,  0.00000,  0.10650,  0.00000,  0.00000,  1.00000,  1,  100.0,  267.730,  80.320
5298,  '1',  34.500,  50.538,  58.530,  -12.760,  1.04000,  0,  138.000,  0.00000,  0.13260,  0.00000,  0.00000,  1.00000,  1,  100.0,  115.000,  34.500
5299,  '1',  34.500,  24.415,  58.530,  -12.760,  1.04000,  0,  138.000,  0.00000,  0.32280,  0.00000,  0.00000,  1.00000,  1,  100.0,  115.000,  34.500
5300,  '1',  34.500,  29.470,  58.530,  -12.760,  1.04000,  0,  138.000,  0.00000,  0.21910,  0.00000,  0.00000,  1.00000,  1,  100.0,  115.000,  34.500
5302,  '1',  139.130,  30.482,  236.050,  -51.480,  1.04000,  0,  556.500,  0.00000,  0.13300,  0.00000,  0.00000,  1.00000,  1,  100.0,  463.750,  139.130
5303,  '1',  139.130,  41.306,  236.050,  -51.480,  1.04000,  0,  556.500,  0.00000,  0.17920,  0.00000,  0.00000,  1.00000,  1,  100.0,  463.750,  139.130
5319,  '1',  78.840,  -29.170,  133.770,  -29.170,  1.01000,  0,  315.360,  0.00000,  0.25070,  0.00000,  0.00000,  1.00000,  1,  100.0,  262.800,  78.840
5320,  '1',  78.840,  -29.170,  133.770,  -29.170,  1.01000,  0,  315.360,  0.00000,  0.28140,  0.00000,  0.00000,  1.00000,  1,  100.0,  262.800,  78.840
5321,  '1',  78.840,  -29.170,  133.770,  -29.170,  1.01000,  0,  315.360,  0.00000,  0.12810,  0.00000,  0.00000,  1.00000,  1,  100.0,  262.800,  78.840
5324,  '1',  164.760,  33.732,  144.590,  -31.530,  1.04000,  0,  340.880,  0.00000,  0.21670,  0.00000,  0.00000,  1.00000,  1,  100.0,  284.070,  85.220
5325,  '1',  164.760,  34.915,  144.590,  -31.530,  1.04000,  0,  340.880,  0.00000,  0.15030,  0.00000,  0.00000,  1.00000,  1,  100.0,  284.070,  85.220
5326,  '1',  164.760,  96.795,  144.590,  -31.530,  1.04000,  0,  340.880,  0.00000,  0.18810,  0.00000,  0.00000,  1.00000,  1,  100.0,  284.070,  85.220
5360,  '1',  328.028,  -158.806,  469.730,  -122.980,  1.01000,  0,  1209.60,  0.00000,  0.25510,  0.00000,  0.00000,  1.00000,  1,  100.0,  1008.00,  302.400
5364,  '1',  64.000,  -23.680,  108.590,  -23.680,  1.00000,  0,  256.000,  0.00000,  0.13030,  0.00000,  0.00000,  1.00000,  1,  100.0,  213.330,  64.000
5365,  '1',  64.000,  -23.680,  108.590,  -23.680,  1.00000,  0,  256.000,  0.00000,  0.11650,  0.00000,  0.00000,  1.00000,  1,  100.0,  213.330,  64.000
5366,  '1',  64.000,  -23.680,  108.590,  -23.680,  1.00000,  0,  256.000,  0.00000,  0.15490,  0.00000,  0.00000,  1.00000,  1,  100.0,  213.330,  64.000
5367,  '1',  64.000,  -23.680,  108.590,  -23.680,  1.00000,  0,  256.000,  0.00000,  0.10020,  0.00000,  0.00000,  1.00000,  1,  100.0,  213.330,  64.000
5368,  '1',  64.000,  -23.680,  108.590,  -23.680,  1.00000,  0,  256.000,  0.00000,  0.36180,  0.00000,  0.00000,  1.00000,  1,  100.0,  213.330,  64.000
5369,  '1',  64.000,  -23.680,  108.590,  -23.680,  1.00000,  0,  256.000,  0.00000,  0.24440,  0.00000,  0.00000,  1.00000,  1,  100.0,  213.330,  64.000
5382,  '1',  121.220,  56.894,  106.380,  -23.200,  1.04000,  0,  250.800,  0.00000,  0.24770,  0.00000,  0.00000,  1.00000,  1,  100.0,  209.000,  62.700
5383,  '1',  121.220,  50.049,  106.380,  -23.200,  1.04000,  0,  250.800,  0.00000,  0.39820,  0.00000,  0.00000,  1.00000,  1,  100.0,  209.000,  62.700
5399,  '1',  51.893,  -17.172,  35.270,  -23.850,  1.04000,  0,  198.720,  0.00000,  1.00000,  0.00000,  0.00000,  1.00000,  1,  100.0,  165.600,  49.680
5403,  '1',  0.000,  45.500,  45.500,  -9.920,  1.03000,  0,  107.280,  0.00000,  0.19850,  0.00000,  0.00000,  1.00000,  0,  100.0,  89.400,  26.820
5404,  '1',  0.000,  45.500,  45.500,  -9.920,  1.03000,  0,  107.280,  0.00000,  0.13470,  0.00000,  0.00000,  1.00000,  0,  100.0,  89.400,  26.820
5405,  '1',  0.000,  45.500,  45.500,  -9.920,  1.03000,  0,  107.280,  0.00000,  0.14170,  0.00000,  0.00000,  1.00000,  0,  100.0,  89.400,  26.820
5406,  '1',  0.000,  45.500,  45.500,  -9.920,  1.03000,  0,  107.280,  0.00000,  0.12270,  0.00000,  0.00000,  1.00000,  0,  100.0,  89.400,  26.820
5415,  '1',  36.600,  -13.540,  62.100,  -13.540,  1.00000,  0,  146.400,  0.00000,  0.14030,  0.00000,  0.00000,  1.00000,  1,  100.0,  122.000,  36.600
5416,  '1',  36.600,  -13.540,  62.100,  -13.540,  1.00000,  0,  146.400,  0.00000,  0.26480,  0.00000,  0.00000,  1.00000,  1,  100.0,  122.000,  36.600
5417,  '1',  36.600,  -13.540,  62.100,  -13.540,  1.00000,  0,  146.400,  0.00000,  0.16960,  0.00000,  0.00000,  1.00000,  1,  100.0,  122.000,  36.600
5418,  '1',  35.640,  -13.190,  60.470,  -13.190,  1.00000,  0,  142.560,  0.00000,  0.34000,  0.00000,  0.00000,  1.00000,  1,  100.0,  118.800,  35.640
5419,  '1',  35.640,  -13.190,  60.470,  -13.190,  1.00000,  0,  142.560,  0.00000,  0.16420,  0.00000,  0.00000,  1.00000,  1,  100.0,  118.800,  35.640
5444,  '1',  604.980,  -223.840,  1026.440,  -223.840,  1.01000,  0,  2419.92,  0.00000,  0.34260,  0.00000,  0.00000,  1.00000,  1,  100.0,  2016.60,  604.980
6006,  '1',  63.900,  6.957,  108.420,  -23.640,  1.04000,  0,  255.600,  0.00000,  0.18770,  0.00000,  0.00000,  1.00000,  1,  100.0,  213.000,  63.900
6007,  '1',  127.800,  11.021,  216.830,  -47.290,  1.04000,  0,  511.200,  0.00000,  0.13420,  0.00000,  0.00000,  1.00000,  1,  100.0,  426.000,  127.800
6008,  '1',  59.500,  6.290,  100.950,  -22.010,  1.04000,  0,  238.000,  0.00000,  0.20160,  0.00000,  0.00000,  1.00000,  1,  100.0,  198.330,  59.500
6009,  '1',  59.500,  3.669,  100.950,  -22.010,  1.04000,  0,  238.000,  0.00000,  0.18430,  0.00000,  0.00000,  1.00000,  1,  100.0,  198.330,  59.500
6010,  '1',  59.500,  4.942,  100.950,  -22.010,  1.04000,  0,  238.000,  0.00000,  0.15620,  0.00000,  0.00000,  1.00000,  1,  100.0,  198.330,  59.500
6048,  '1',  0.000,  0.000,  1.730,  -0.380,  1.04000,  0,  4.080,  0.00000,  0.11720,  0.00000,  0.00000,  1.00000,  0,  100.0,  3.400,  1.020
6049,  '1',  0.000,  4.890,  4.890,  -1.070,  1.04000,  0,  11.520,  0.00000,  0.18260,  0.00000,  0.00000,  1.00000,  0,  100.0,  9.600,  2.880
6050,  '1',  0.000,  0.000,  2.240,  -0.490,  1.04000,  0,  5.280,  0.00000,  0.36280,  0.00000,  0.00000,  1.00000,  0,  100.0,  4.400,  1.320
6052,  '1',  0.000,  29.220,  29.220,  -6.370,  1.04000,  0,  68.880,  0.00000,  0.12090,  0.00000,  0.00000,  1.00000,  0,  100.0,  57.400,  17.220
6069,  '1',  54.410,  -16.809,  92.320,  -20.130,  1.03000,  0,  217.640,  0.00000,  0.22480,  0.00000,  0.00000,  1.00000,  1,  100.0,  181.370,  54.410
6070,  '1',  54.410,  -6.984,  92.320,  -20.130,  1.03000,  0,  217.640,  0.00000,  0.24660,  0.00000,  0.00000,  1.00000,  1,  100.0,  181.370,  54.410
6071,  '1',  54.410,  -20.130,  92.320,  -20.130,  1.03000,  0,  217.640,  0.00000,  0.15280,  0.00000,  0.00000,  1.00000,  1,  100.0,  181.370,  54.410
6072,  '1',  54.410,  -8.258,  92.320,  -20.130,  1.03000,  0,  217.640,  0.00000,  0.19250,  0.00000,  0.00000,  1.00000,  1,  100.0,  181.370,  54.410
6073,  '1',  54.410,  -12.641,  92.320,  -20.130,  1.03000,  0,  217.640,  0.00000,  0.14260,  0.00000,  0.00000,  1.00000,  1,  100.0,  181.370,  54.410
6074,  '1',  54.410,  -13.094,  92.320,  -20.130,  1.03000,  0,  217.640,  0.00000,  0.11150,  0.00000,  0.00000,  1.00000,  1,  100.0,  181.370,  54.410
6078,  '1',  169.000,  -68.730,  262.510,  -68.730,  1.00000,  0,  676.000,  0.00000,  0.28900,  0.00000,  0.00000,  1.00000,  1,  100.0,  563.330,  169.000
6079,  '1',  169.000,  -68.730,  262.510,  -68.730,  1.00000,  0,  676.000,  0.00000,  0.25330,  0.00000,  0.00000,  1.00000,  1,  100.0,  563.330,  169.000
6080,  '1',  169.000,  -68.730,  262.510,  -68.730,  1.00000,  0,  676.000,  0.00000,  0.32510,  0.00000,  0.00000,  1.00000,  1,  100.0,  563.330,  169.000
6085,  '1',  0.000,  0.000,  0.000,  0.000,  1.04000,  0,  1.680,  0.00000,  1.00000,  0.00000,  0.00000,  1.00000,  0,  100.0,  1.400,  0.420
6086,  '1',  0.000,  0.000,  0.000,  0.000,  1.04000,  0,  36.000,  0.00000,  1.00000,  0.00000,  0.00000,  1.00000,  0,  100.0,  30.000,  9.000
6087,  '1',  0.000,  0.000,  0.000,  0.000,  1.04000,  0,  6.600,  0.00000,  1.00000,  0.00000,  0.00000,  1.00000,  0,  100.0,  5.500,  1.650
6088,  '1',  0.000,  0.000,  0.000,  0.000,  1.04000,  0,  12.720,  0.00000,  1.00000,  0.00000,  0.00000,  1.00000,  0,  100.0,  10.600,  3.180
6089,  '1',  0.000,  0.000,  0.000,  0.000,  1.04000,  0,  16.680,  0.00000,  1.00000,  0.00000,  0.00000,  1.00000,  0,  100.0,  13.900,  4.170
6090,  '1',  0.000,  0.000,  0.000,  0.000,  1.04000,  0,  48.840,  0.00000,  1.00000,  0.00000,  0.00000,  1.00000,  0,  100.0,  40.700,  12.210
6104,  '1',  0.000,  30.790,  30.790,  -6.720,  1.04000,  0,  72.600,  0.00000,  0.21100,  0.00000,  0.00000,  1.00000,  0,  100.0,  60.500,  18.150
6105,  '1',  0.000,  30.790,  30.790,  -6.720,  1.04000,  0,  72.600,  0.00000,  0.31280,  0.00000,  0.00000,  1.00000,  0,  100.0,  60.500,  18.150
...
 0 /End of Generator data, Begin Branch data
1004,  1023,  '99',  0.01120,  0.34528,  0.00000,  0.00,  0.00,  0.00,  0.00000,  0.000,  0.00000,  0.00000,  0.00000,  0.00000,  1
1004,  1057,  '99',  0.63702,  4.13209,  0.00000,  0.00,  0.00,  0.00,  0.00000,  0.000,  0.00000,  0.00000,  0.00000,  0.00000,  1
1004,  2062,  '99',  0.91515,  4.39724,  0.00000,  0.00,  0.00,  0.00,  0.00000,  0.000,  0.00000,  0.00000,  0.00000,  0.00000,  1
1004,  2100,  '99',  0.04917,  0.61102,  0.00000,  0.00,  0.00,  0.00,  0.00000,  0.000,  0.00000,  0.00000,  0.00000,  0.00000,  1
1004,  2127,  '99',  0.08801,  0.60289,  0.00000,  0.00,  0.00,  0.00,  0.00000,  0.000,  0.00000,  0.00000,  0.00000,  0.00000,  1
1004,  3034,  '99',  0.36895,  2.83473,  0.00000,  0.00,  0.00,  0.00,  0.00000,  0.000,  0.00000,  0.00000,  0.00000,  0.00000,  1
1004,  3039,  '99',  0.03304,  0.33771,  0.00000,  0.00,  0.00,  0.00,  0.00000,  0.000,  0.00000,  0.00000,  0.00000,  0.00000,  1
1004,  3048,  '99',  0.04553,  0.33914,  0.00000,  0.00,  0.00,  0.00,  0.00000,  0.000,  0.00000,  0.00000,  0.00000,  0.00000,  1
1004,  3081,  '99',  0.04032,  0.42736,  0.00000,  0.00,  0.00,  0.00,  0.00000,  0.000,  0.00000,  0.00000,  0.00000,  0.00000,  1
1004,  3086,  '99',  0.55419,  3.93048,  0.00000,  0.00,  0.00,  0.00,  0.00000,  0.000,  0.00000,  0.00000,  0.00000,  0.00000,  1
1004,  3087,  '99',  0.55419,  3.93048,  0.00000,  0.00,  0.00,  0.00,  0.00000,  0.000,  0.00000,  0.00000,  0.00000,  0.00000,  1
1004,  3098,  '99',  0.03012,  0.46871,  0.00000,  0.00,  0.00,  0.00,  0.00000,  0.000,  0.00000,  0.00000,  0.00000,  0.00000,  1
1004,  3110,  '99',  0.06250,  0.51273,  0.00000,  0.00,  0.00,  0.00,  0.00000,  0.000,  0.00000,  0.00000,  0.00000,  0.00000,  1
1004,  3118,  '99',  0.21348,  2.10157,  0.00000,  0.00,  0.00,  0.00,  0.00000,  0.000,  0.00000,  0.00000,  0.00000,  0.00000,  1
1004,  3129,  '99',  1.39007,  4.34783,  0.00000,  0.00,  0.00,  0.00,  0.00000,  0.000,  0.00000,  0.00000,  0.00000,  0.00000,  1
1009,  1012,  '99',  0.31846,  2.52907,  0.00000,  0.00,  0.00,  0.00,  0.00000,  0.000,  0.00000,  0.00000,  0.00000,  0.00000,  1
1009,  1033,  '99',  0.08815,  0.79196,  0.00000,  0.00,  0.00,  0.00,  0.00000,  0.000,  0.00000,  0.00000,  0.00000,  0.00000,  1
1009,  1046,  '99',  0.20064,  1.76063,  0.00000,  0.00,  0.00,  0.00,  0.00000,  0.000,  0.00000,  0.00000,  0.00000,  0.00000,  1
1009,  1070,  '99',  -0.01112,  0.43787,  0.00000,  0.00,  0.00,  0.00,  0.00000,  0.000,  0.00000,  0.00000,  0.00000,  0.00000,  1
1009,  1082,  '99',  0.10523,  0.49969,  0.00000,  0.00,  0.00,  0.00,  0.00000,  0.000,  0.00000,  0.00000,  0.00000,  0.00000,  1
1009,  1088,  '99',  0.64991,  2.74166,  0.00000,  0.00,  0.00,  0.00,  0.00000,  0.000,  0.00000,  0.00000,  0.00000,  0.00000,  1
1012,  1046,  '99',  0.16962,  0.61113,  0.00000,  0.00,  0.00,  0.00,  0.00000,  0.000,  0.00000,  0.00000,  0.00000,  0.00000,  1
1012,  1070,  '99',  0.10668,  1.15620,  0.00000,  0.00,  0.00,  0.00,  0.00000,  0.000,  0.00000,  0.00000,  0.00000,  0.00000,  1
1012,  1082,  '99',  0.44196,  1.46831,  0.00000,  0.00,  0.00,  0.00,  0.00000,  0.000,  0.00000,  0.00000,  0.00000,  0.00000,  1
1012,  -3051,  '1',  0.05710,  0.24977,  0.03804,  149.00,  0.00,  0.00,  0.00000,  0.000,  0.00000,  0.00000,  0.00000,  0.00000,  1
1021,  1026,  '99',  0.01384,  0.82154,  0.00000,  0.00,  0.00,  0.00,  0.00000,  0.000,  0.00000,  0.00000,  0.00000,  0.00000,  1
1021,  1035,  '99',  0.64506,  4.16181,  0.00000,  0.00,  0.00,  0.00,  0.00000,  0.000,  0.00000,  0.00000,  0.00000,  0.00000,  1
1021,  1042,  '99',  0.55502,  4.21290,  0.00000,  0.00,  0.00,  0.00,  0.00000,  0.000,  0.00000,  0.00000,  0.00000,  0.00000,  1
1021,  1084,  '99',  0.01196,  0.19618,  0.00000,  0.00,  0.00,  0.00,  0.00000,  0.000,  0.00000,  0.00000,  0.00000,  0.00000,  1
1021,  3019,  '99',  0.08554,  2.95789,  0.00000,  0.00,  0.00,  0.00,  0.00000,  0.000,  0.00000,  0.00000,  0.00000,  0.00000,  1
1021,  3048,  '99',  0.60095,  4.92249,  0.00000,  0.00,  0.00,  0.00,  0.00000,  0.000,  0.00000,  0.00000,  0.00000,  0.00000,  1
1021,  3112,  '99',  0.45340,  2.36404,  0.00000,  0.00,  0.00,  0.00,  0.00000,  0.000,  0.00000,  0.00000,  0.00000,  0.00000,  1
1021,  3113,  '99',  0.45340,  2.36404,  0.00000,  0.00,  0.00,  0.00,  0.00000,  0.000,  0.00000,  0.00000,  0.00000,  0.00000,  1
1023,  2100,  '99',  0.08657,  4.10799,  0.00000,  0.00,  0.00,  0.00,  0.00000,  0.000,  0.00000,  0.00000,  0.00000,  0.00000,  1
1023,  2127,  '99',  0.34298,  4.09865,  0.00000,  0.00,  0.00,  0.00,  0.00000,  0.000,  0.00000,  0.00000,  0.00000,  0.00000,  1
1023,  3098,  '99',  0.01762,  3.09206,  0.00000,  0.00,  0.00,  0.00,  0.00000,  0.000,  0.00000,  0.00000,  0.00000,  0.00000,  1
1023,  3110,  '99',  0.08552,  0.92587,  0.00000,  0.00,  0.00,  0.00,  0.00000,  0.000,  0.00000,  0.00000,  0.00000,  0.00000,  1
1026,  1035,  '99',  0.42434,  2.87862,  0.00000,  0.00,  0.00,  0.00,  0.00000,  0.000,  0.00000,  0.00000,  0.00000,  0.00000,  1
1026,  1042,  '99',  0.36213,  2.91743,  0.00000,  0.00,  0.00,  0.00,  0.00000,  0.000,  0.00000,  0.00000,  0.00000,  0.00000,  1
1026,  1066,  '99',  0.53089,  3.90016,  0.00000,  0.00,  0.00,  0.00,  0.00000,  0.000,  0.00000,  0.00000,  0.00000,  0.00000,  1
1026,  1084,  '99',  0.07265,  0.48974,  0.00000,  0.00,  0.00,  0.00,  0.00000,  0.000,  0.00000,  0.00000,  0.00000,  0.00000,  1
1033,  1039,  '99',  0.07192,  0.91888,  0.00000,  0.00,  0.00,  0.00,  0.00000,  0.000,  0.00000,  0.00000,  0.00000,  0.00000,  1
1033,  1070,  '99',  0.19345,  1.23708,  0.00000,  0.00,  0.00,  0.00,  0.00000,  0.000,  0.00000,  0.00000,  0.00000,  0.00000,  1
1033,  1081,  '99',  0.00300,  0.03100,  0.00000,  0.00,  0.00,  0.00,  0.00000,  0.000,  0.00000,  0.00000,  0.00000,  0.00000,  1
1033,  1082,  '99',  0.11869,  0.39876,  0.00000,  0.00,  0.00,  0.00,  0.00000,  0.000,  0.00000,  0.00000,  0.00000,  0.00000,  1
1033,  1088,  '99',  0.01505,  0.51308,  0.00000,  0.00,  0.00,  0.00,  0.00000,  0.000,  0.00000,  0.00000,  0.00000,  0.00000,  1
1033,  3050,  '1',  0.01390,  0.13600,  0.26200,  647.00,  0.00,  0.00,  0.00000,  0.000,  0.00000,  0.00000,  0.00000,  0.00000,  1
1035,  1042,  '99',  0.00837,  0.65428,  0.00000,  0.00,  0.00,  0.00,  0.00000,  0.000,  0.00000,  0.00000,  0.00000,  0.00000,  1
1035,  1057,  '99',  0.10070,  2.21757,  0.00000,  0.00,  0.00,  0.00,  0.00000,  0.000,  0.00000,  0.00000,  0.00000,  0.00000,  1
1035,  1066,  '99',  0.03383,  0.92288,  0.00000,  0.00,  0.00,  0.00,  0.00000,  0.000,  0.00000,  0.00000,  0.00000,  0.00000,  1
1035,  1084,  '99',  0.67621,  2.27165,  0.00000,  0.00,  0.00,  0.00,  0.00000,  0.000,  0.00000,  0.00000,  0.00000,  0.00000,  1
1035,  1088,  '99',  0.05746,  0.92917,  0.00000,  0.00,  0.00,  0.00,  0.00000,  0.000,  0.00000,  0.00000,  0.00000,  0.00000,  1
1039,  1048,  '99',  0.07462,  3.12981,  0.00000,  0.00,  0.00,  0.00,  0.00000,  0.000,  0.00000,  0.00000,  0.00000,  0.00000,  1
1039,  1053,  '99',  -0.00400,  4.18930,  0.00000,  0.00,  0.00,  0.00,  0.00000,  0.000,  0.00000,  0.00000,  0.00000,  0.00000,  1
1039,  1082,  '99',  0.01233,  0.17249,  0.00000,  0.00,  0.00,  0.00,  0.00000,  0.000,  0.00000,  0.00000,  0.00000,  0.00000,  1
1039,  1088,  '99',  0.64700,  3.19036,  0.00000,  0.00,  0.00,  0.00,  0.00000,  0.000,  0.00000,  0.00000,  0.00000,  0.00000,  1
1042,  1057,  '99',  -0.01028,  1.63967,  0.00000,  0.00,  0.00,  0.00,  0.00000,  0.000,  0.00000,  0.00000,  0.00000,  0.00000,  1
1042,  1066,  '99',  -0.01424,  0.56263,  0.00000,  0.00,  0.00,  0.00,  0.00000,  0.000,  0.00000,  0.00000,  0.00000,  0.00000,  1
1042,  1084,  '99',  0.61213,  2.24762,  0.00000,  0.00,  0.00,  0.00,  0.00000,  0.000,  0.00000,  0.00000,  0.00000,  0.00000,  1
1042,  1088,  '99',  0.27535,  3.38263,  0.00000,  0.00,  0.00,  0.00,  0.00000,  0.000,  0.00000,  0.00000,  0.00000,  0.00000,  1
1046,  1070,  '99',  0.06468,  0.80458,  0.00000,  0.00,  0.00,  0.00,  0.00000,  0.000,  0.00000,  0.00000,  0.00000,  0.00000,  1
1046,  1082,  '99',  0.29519,  1.02429,  0.00000,  0.00,  0.00,  0.00,  0.00000,  0.000,  0.00000,  0.00000,  0.00000,  0.00000,  1
1046,  3009,  '1',  0.05654,  0.23454,  0.03980,  149.00,  0.00,  0.00,  0.00000,  0.000,  0.00000,  0.00000,  0.00000,  0.00000,  1
1048,  1049,  '99',  0.00163,  0.34073,  0.00000,  0.00,  0.00,  0.00,  0.00000,  0.000,  0.00000,  0.00000,  0.00000,  0.00000,  1
1048,  1053,  '99',  0.00190,  0.25472,  0.00000,  0.00,  0.00,  0.00,  0.00000,  0.000,  0.00000,  0.00000,  0.00000,  0.00000,  1
1048,  1076,  '99',  0.43536,  2.86897,  0.00000,  0.00,  0.00,  0.00,  0.00000,  0.000,  0.00000,  0.00000,  0.00000,  0.00000,  1
1048,  1081,  '99',  0.57307,  3.85580,  0.00000,  0.00,  0.00,  0.00,  0.00000,  0.000,  0.00000,  0.00000,  0.00000,  0.00000,  1
1048,  1082,  '99',  0.41311,  1.78177,  0.00000,  0.00,  0.00,  0.00,  0.00000,  0.000,  0.00000,  0.00000,  0.00000,  0.00000,  1
1048,  3048,  '99',  0.42344,  3.05125,  0.00000,  0.00,  0.00,  0.00,  0.00000,  0.000,  0.00000,  0.00000,  0.00000,  0.00000,  1
1049,  1053,  '99',  -0.00913,  0.45586,  0.00000,  0.00,  0.00,  0.00,  0.00000,  0.000,  0.00000,  0.00000,  0.00000,  0.00000,  1
1049,  1082,  '99',  0.65155,  3.20847,  0.00000,  0.00,  0.00,  0.00,  0.00000,  0.000,  0.00000,  0.00000,  0.00000,  0.00000,  1
1053,  1076,  '99',  0.48722,  3.85233,  0.00000,  0.00,  0.00,  0.00,  0.00000,  0.000,  0.00000,  0.00000,  0.00000,  0.00000,  1
1053,  1081,  '99',  0.00299,  0.02983,  0.00000,  0.00,  0.00,  0.00,  0.00000,  0.000,  0.00000,  0.00000,  0.00000,  0.00000,  1
1053,  1082,  '99',  0.49352,  2.39723,  0.00000,  0.00,  0.00,  0.00,  0.00000,  0.000,  0.00000,  0.00000,  0.00000,  0.00000,  1
1053,  3048,  '99',  0.46523,  4.09578,  0.00000,  0.00,  0.00,  0.00,  0.00000,  0.000,  0.00000,  0.00000,  0.00000,  0.00000,  1
1057,  1066,  '99',  -0.02578,  1.43124,  0.00000,  0.00,  0.00,  0.00,  0.00000,  0.000,  0.00000,  0.00000,  0.00000,  0.00000,  1
1057,  1076,  '99',  0.20430,  3.12428,  0.00000,  0.00,  0.00,  0.00,  0.00000,  0.000,  0.00000,  0.00000,  0.00000,  0.00000,  1
...